&share
wrf_core = 'ARW',
max_dom = 1,
start_date = '2010-07-14_00:00:00',
end_date = '2010-07-16_00:00:00',
interval_seconds = 10800,
io_form_geogrid = 2,
/
&geogrid
parent_id
= 1,
parent_grid_ratio = 1,
i_parent_start = 1,
j_parent_start = 1,
e_we
= 41,
e_sn
= 41,
geog_data_res = '10m',
dx
= 100000,
dy
= 100000,
map_proj = 'lambert',ref_lat = 35.0,
ref_lon = 25.0,
truelat1 = 30.0,
truelat2 = 40.0,
stand_lon = 25.0,
geog_data_path = '/home/ubuntu/Build_WRF/geog'
/
ref_x = 20.5
ref_y = 20.5
&ungrib
out_format = 'WPS',
prefix = 'FILE',
/
&metgrid
fg_name = 'FILE'
io_form_metgrid = 2,
/
opt_ignore_dom_center = .true.,
&mod_levs
press_pa = 201300 , 200100 , 100000 ,
95000 , 90000 ,
85000 , 80000 ,
75000 , 70000 ,
65000 , 60000 ,
55000 , 50000 ,
45000 , 40000 ,
35000 , 30000 ,
25000 , 20000 ,
15000 , 10000 ,
5000 , 1000
/
